*ngspice netlist  by niel mishra* 
v1 1 0 sin(0 5 1khz)
c1 2 0 1pf
d1 1 3 diode
r1 3 2 10

.tran 1e-03 100e-03 1e-03

.control 
run 
print allv > dumpv.txt 
print alli > dumpi.txt 
.endc 
.end 
