
.MODEL 1N5711 D (IS=5.5987E-9 N=1.0023 RS=30.053 IKF=19.036 CJO=1.7605E-12
+               M=.20029 VJ=.3905 ISR=24.229E-9 NR=4.1695 FC=0.5 TT=0 XTI=2)

