.MODEL 2N2907  PNP (IS=15.294E-15 BF=297.85 VAF=100 IKF=1.6607 ISE=29.577E-15
+ 		NE=1.5507 BR=476 VAR=100 IKR=2.2270  ISC=7.6418E-9 NC=2.1591 NK=.97918
+ 		RB=2.4875 RC=.69253 CJE=33.186E-12 VJE=.8716 MJE=.40799 CJC=15.649E-12
+		VJC=.56868 MJC=.3619 TF=456.18E-12 XTF=22.393 VTF=28.493 ITF=.62109
+ 		TR=10.000E-9 )